porphin_plus_fe_4_bonds_charged_n
     RDKit          3D

 25 32  0  0  0  0  0  0  0  0999 V2000
   -2.8028    1.2063    0.0000 C   0  0  0  0  0  0  0  0  0  0  0  0
   -3.4415    2.4835    0.0000 C   0  0  0  0  0  0  0  0  0  0  0  0
   -2.4480    3.4770    0.0000 C   0  0  0  0  0  0  0  0  0  0  0  0
   -1.2063    2.8383    0.0000 C   0  0  0  0  0  0  0  0  0  0  0  0
    0.0000    3.5479    0.0000 C   0  0  0  0  0  0  0  0  0  0  0  0
    1.2419    2.8383    0.0000 C   0  0  0  0  0  0  0  0  0  0  0  0
    2.4837    3.4770    0.0000 C   0  0  0  0  0  0  0  0  0  0  0  0
    3.5125    2.4835    0.0000 C   0  0  0  0  0  0  0  0  0  0  0  0
    2.8383    1.2063    0.0000 C   0  0  0  0  0  0  0  0  0  0  0  0
    3.5481    0.0000    0.0000 C   0  0  0  0  0  0  0  0  0  0  0  0
    2.8383   -1.2063    0.0000 C   0  0  0  0  0  0  0  0  0  0  0  0
    3.5125   -2.4835    0.0000 C   0  0  0  0  0  0  0  0  0  0  0  0
    2.4837   -3.4770    0.0000 C   0  0  0  0  0  0  0  0  0  0  0  0
    1.2419   -2.8385    0.0000 C   0  0  0  0  0  0  0  0  0  0  0  0
    0.0000   -3.5481    0.0000 C   0  0  0  0  0  0  0  0  0  0  0  0
   -1.2063   -2.8385    0.0000 C   0  0  0  0  0  0  0  0  0  0  0  0
   -2.4480   -3.4770    0.0000 C   0  0  0  0  0  0  0  0  0  0  0  0
   -3.4415   -2.4835    0.0000 C   0  0  0  0  0  0  0  0  0  0  0  0
   -2.8028   -1.2063    0.0000 C   0  0  0  0  0  0  0  0  0  0  0  0
   -3.5124    0.0000    0.0000 C   0  0  0  0  0  0  0  0  0  0  0  0
   -1.4192    1.4547    0.0000 N   0  0  0  0  0  0  0  0  0  0  0  0
    1.4547    1.4547    0.0000 N   0  0  0  0  0  0  0  0  0  0  0  0
    1.4547   -1.4547    0.0000 N   0  0  0  0  0  0  0  0  0  0  0  0
   -1.4192   -1.4547    0.0000 N   0  0  0  0  0  0  0  0  0  0  0  0
    0.0000    0.0000    0.0000 Fe  0  0  0  0  0  4  0  0  0  0  0  0
 14 15  2  0
 16 15  1  0
 13 14  1  0
 23 14  1  0
 24 16  2  0
 17 16  1  0
 11 23  1  0
 12 13  2  0
 11 12  1  0
 10 11  2  0
  9 10  1  0
 22  9  2  0
  8  9  1  0
  6 22  1  0
  7  8  2  0
  7  6  1  0
  5  6  2  0
  4  5  1  0
 21  4  1  0
  3  4  2  0
  1 21  1  0
  2  1  2  0
 20  1  1  0
  3  2  1  0
 19 20  2  0
 24 19  1  0
 18 19  1  0
 18 17  2  0
 21 25  1  0
 22 25  1  0
 23 25  1  0
 24 25  1  0
M  CHG  3  22   1  24   1  25  -2
M  END
$$$$
porphin
     RDKit          3D
from ChEBI_8337.sdf scaled up by 1.7
 24 28  0  0  0  0  0  0  0  0999 V2000
   -2.8028    1.2063    0.0000 C   0  0  0  0  0  0  0  0  0  0  0  0
   -3.4415    2.4835    0.0000 C   0  0  0  0  0  0  0  0  0  0  0  0
   -2.4480    3.4770    0.0000 C   0  0  0  0  0  0  0  0  0  0  0  0
   -1.2063    2.8383    0.0000 C   0  0  0  0  0  0  0  0  0  0  0  0
    0.0000    3.5479    0.0000 C   0  0  0  0  0  0  0  0  0  0  0  0
    1.2419    2.8383    0.0000 C   0  0  0  0  0  0  0  0  0  0  0  0
    2.4837    3.4770    0.0000 C   0  0  0  0  0  0  0  0  0  0  0  0
    3.5125    2.4835    0.0000 C   0  0  0  0  0  0  0  0  0  0  0  0
    2.8383    1.2063    0.0000 C   0  0  0  0  0  0  0  0  0  0  0  0
    3.5481    0.0000    0.0000 C   0  0  0  0  0  0  0  0  0  0  0  0
    2.8383   -1.2063    0.0000 C   0  0  0  0  0  0  0  0  0  0  0  0
    3.5125   -2.4835    0.0000 C   0  0  0  0  0  0  0  0  0  0  0  0
    2.4837   -3.4770    0.0000 C   0  0  0  0  0  0  0  0  0  0  0  0
    1.2419   -2.8385    0.0000 C   0  0  0  0  0  0  0  0  0  0  0  0
    0.0000   -3.5481    0.0000 C   0  0  0  0  0  0  0  0  0  0  0  0
   -1.2063   -2.8385    0.0000 C   0  0  0  0  0  0  0  0  0  0  0  0
   -2.4480   -3.4770    0.0000 C   0  0  0  0  0  0  0  0  0  0  0  0
   -3.4415   -2.4835    0.0000 C   0  0  0  0  0  0  0  0  0  0  0  0
   -2.8028   -1.2063    0.0000 C   0  0  0  0  0  0  0  0  0  0  0  0
   -3.5124    0.0000    0.0000 C   0  0  0  0  0  0  0  0  0  0  0  0
   -1.4192    1.4547    0.0000 N   0  0  0  0  0  0  0  0  0  0  0  0
    1.4547    1.4547    0.0000 N   0  0  0  0  0  0  0  0  0  0  0  0
    1.4547   -1.4547    0.0000 N   0  0  0  0  0  0  0  0  0  0  0  0
   -1.4192   -1.4547    0.0000 N   0  0  0  0  0  0  0  0  0  0  0  0
 14 15  2  0
 16 15  1  0
 13 14  1  0
 23 14  1  0
 24 16  2  0
 17 16  1  0
 11 23  1  0
 12 13  2  0
 11 12  1  0
 10 11  2  0
  9 10  1  0
 22  9  2  0
  8  9  1  0
  6 22  1  0
  7  8  2  0
  7  6  1  0
  5  6  2  0
  4  5  1  0
 21  4  1  0
  3  4  2  0
  1 21  1  0
  2  1  2  0
 20  1  1  0
  3  2  1  0
 19 20  2  0
 24 19  1  0
 18 19  1  0
 18 17  2  0
M  END
$$$$
taxol

from chemspider www.chemspider.com/Chemical-Structure.10368587.html
 62 68  0  0001  0  0  0  0  0999 V2000
   14.3406   -6.7876    0.0000 O   0  0  0  0  0  0  0  0  0  0  0
   16.4534   -5.5566    0.0000 O   0  0  0  0  0  0  0  0  0  0  0
   12.5438   -7.8524    0.0000 O   0  0  0  0  0  0  0  0  0  0  0
   10.1316   -6.8708    0.0000 O   0  0  0  0  0  0  0  0  0  0  0
   11.6954   -1.2644    0.0000 O   0  0  0  0  0  0  0  0  0  0  0
   14.3572   -1.9298    0.0000 O   0  0  0  0  0  0  0  0  0  0  0
    8.0354   -1.9964    0.0000 O   0  0  0  0  0  0  0  0  0  0  0
    6.6213   -6.3717    0.0000 O   0  0  0  0  0  0  0  0  0  0  0
   15.4718   -8.7840    0.0000 O   0  0  0  0  0  0  0  0  0  0  0
   10.4144   -7.8191    0.0000 O   0  0  0  0  0  0  0  0  0  0  0
    6.9873   -0.1664    0.0000 O   0  0  0  0  0  0  0  0  0  0  0
    5.5233   -4.4752    0.0000 O   0  0  0  0  0  0  0  0  0  0  0
    4.4253   -7.6527    0.0000 O   0  0  0  0  0  0  0  0  0  0  0
    1.0980   -4.4752    0.0000 O   0  0  0  0  0  0  0  0  0  0  0
    3.3106   -4.4752    0.0000 N   0  0  0  0  0  0  0  0  0  0  0
   13.2925   -4.8578    0.0000 C   0  0  0  0  0  0  0  0  0  0  0
   14.3572   -5.4734    0.0000 C   0  0  0  0  0  0  0  0  0  0  0
   13.2925   -3.6267    0.0000 C   0  0  0  0  0  0  0  0  0  0  0
   12.5272   -5.6896    0.0000 C   0  0  0  0  0  0  0  0  0  0  0
   10.1482   -5.6730    0.0000 C   0  0  0  0  0  0  0  0  0  0  0
   15.4053   -4.8578    0.0000 C   0  0  0  0  0  0  0  0  0  0  0
   10.1482   -4.4419    0.0000 C   0  0  0  0  0  0  0  0  0  0  0
   11.6787   -2.6119    0.0000 C   0  0  0  0  0  0  0  0  0  0  0
   14.3572   -3.0278    0.0000 C   0  0  0  0  0  0  0  0  0  0  0
    9.1001   -3.8430    0.0000 C   0  0  0  0  0  0  0  0  0  0  0
   15.4552   -6.1721    0.0000 C   0  0  0  0  0  0  0  0  0  0  0
    9.1001   -2.6119    0.0000 C   0  0  0  0  0  0  0  0  0  0  0
   15.4053   -3.6267    0.0000 C   0  0  0  0  0  0  0  0  0  0  0
    9.1001   -6.2886    0.0000 C   0  0  0  0  0  0  0  0  0  0  0
   13.3757   -1.6803    0.0000 C   0  0  0  0  0  0  0  0  0  0  0
    8.0354   -4.4419    0.0000 C   0  0  0  0  0  0  0  0  0  0  0
    8.0354   -5.6730    0.0000 C   0  0  0  0  0  0  0  0  0  0  0
   10.9800   -3.5103    0.0000 C   0  0  0  0  0  0  0  0  0  0  0
   11.1131   -4.9244    0.0000 C   0  0  0  0  0  0  0  0  0  0  0
   15.4885   -7.4697    0.0000 C   0  0  0  0  0  0  0  0  0  0  0
   11.5457   -8.4513    0.0000 C   0  0  0  0  0  0  0  0  0  0  0
    6.9706   -3.8430    0.0000 C   0  0  0  0  0  0  0  0  0  0  0
    8.0354   -0.7653    0.0000 C   0  0  0  0  0  0  0  0  0  0  0
   11.5290   -9.6824    0.0000 C   0  0  0  0  0  0  0  0  0  0  0
   16.6364   -6.8209    0.0000 C   0  0  0  0  0  0  0  0  0  0  0
    5.5233   -5.7396    0.0000 C   0  0  0  0  0  0  0  0  0  0  0
   10.2979  -10.3312    0.0000 C   0  0  0  0  0  0  0  0  0  0  0
   12.6437  -10.3478    0.0000 C   0  0  0  0  0  0  0  0  0  0  0
    4.4253   -6.3717    0.0000 C   0  0  0  0  0  0  0  0  0  0  0
    9.1001   -0.1664    0.0000 C   0  0  0  0  0  0  0  0  0  0  0
    3.3106   -5.7396    0.0000 C   0  0  0  0  0  0  0  0  0  0  0
   10.2813  -11.6455    0.0000 C   0  0  0  0  0  0  0  0  0  0  0
   12.6270  -11.6621    0.0000 C   0  0  0  0  0  0  0  0  0  0  0
   11.4791  -12.3109    0.0000 C   0  0  0  0  0  0  0  0  0  0  0
    2.2126   -6.3717    0.0000 C   0  0  0  0  0  0  0  0  0  0  0
    2.2126   -3.8264    0.0000 C   0  0  0  0  0  0  0  0  0  0  0
    1.0980   -5.7396    0.0000 C   0  0  0  0  0  0  0  0  0  0  0
    2.2126   -7.6527    0.0000 C   0  0  0  0  0  0  0  0  0  0  0
    2.2126   -2.5620    0.0000 C   0  0  0  0  0  0  0  0  0  0  0
    0.0000   -6.3717    0.0000 C   0  0  0  0  0  0  0  0  0  0  0
    1.0980   -8.3016    0.0000 C   0  0  0  0  0  0  0  0  0  0  0
    0.0000   -7.6527    0.0000 C   0  0  0  0  0  0  0  0  0  0  0
    3.3106   -1.9132    0.0000 C   0  0  0  0  0  0  0  0  0  0  0
    1.0980   -1.9132    0.0000 C   0  0  0  0  0  0  0  0  0  0  0
    3.3106   -0.6488    0.0000 C   0  0  0  0  0  0  0  0  0  0  0
    1.0980   -0.6488    0.0000 C   0  0  0  0  0  0  0  0  0  0  0
    2.2126    0.0000    0.0000 C   0  0  0  0  0  0  0  0  0  0  0
 17  1  1  6
  1 35  1  0
  2 21  1  0
  2 26  1  0
 19  3  1  6
  3 36  1  0
 20  4  1  1
  5 23  2  0
 24  6  1  1
 27  7  1  1
  7 38  1  0
 32  8  1  6
  8 41  1  0
  9 35  2  0
 10 36  2  0
 11 38  2  0
 12 41  2  0
 44 13  1  6
 14 51  2  0
 46 15  1  6
 15 51  1  0
 16 17  1  0
 16 18  1  0
 16 19  1  1
 17 21  1  0
 17 26  1  0
 18 23  1  0
 18 24  1  0
 18 30  1  1
 19 20  1  0
 20 22  1  0
 20 29  1  0
 21 28  1  1
 22 25  1  0
 22 33  1  0
 22 34  1  0
 23 27  1  0
 24 28  1  0
 25 27  1  0
 25 31  2  0
 29 32  1  0
 31 32  1  0
 31 37  1  0
 35 40  1  0
 36 39  1  0
 38 45  1  0
 39 42  2  0
 39 43  1  0
 41 44  1  0
 42 47  1  0
 43 48  2  0
 44 46  1  0
 46 50  1  0
 47 49  2  0
 48 49  1  0
 50 52  2  0
 50 53  1  0
 51 54  1  0
 52 55  1  0
 53 56  2  0
 54 58  2  0
 54 59  1  0
 55 57  2  0
 56 57  1  0
 58 60  1  0
 59 61  2  0
 60 62  2  0
 61 62  1  0
M  END

> <StdInChI>
InChI=1S/C47H51NO14/c1-25-31(60-43(56)36(52)35(28-16-10-7-11-17-28)48-41(54)29-18-12-8-13-19-29)23-47(57)40(61-42(55)30-20-14-9-15-21-30)38-45(6,32(51)22-33-46(38,24-58-33)62-27(3)50)39(53)37(59-26(2)49)34(25)44(47,4)5/h7-21,31-33,35-38,40,51-52,57H,22-24H2,1-6H3,(H,48,54)/t31-,32-,33+,35-,36+,37+,38-,40-,45+,46-,47+/m0/s1

> <StdInChIKey>
RCINICONZNJXQF-MZXODVADSA-N

> <AuxInfo>
1/1/N:37,45,40,33,34,30,57,62,49,55,56,60,61,47,48,52,53,58,59,42,43,28,29,26,31,38,35,50,54,39,32,24,21,25,46,44,27,16,23,19,51,36,41,22,18,17,20,15,11,9,6,13,5,14,10,12,4,2,7,8,3,1/E:(4,5)(10,11)(12,13)(14,15)(16,17)(18,19)(20,21)/it:im/rA:62cOOOOOOOOOOOOOONCCCCCCCCCCCCCCCCCCCCCCCCCCCCCCCCCCCCCCCCCCCCCCC/rB:;;;;;;;;;;;;;;;n1s16;s16;n3P16;p4s19;s2s17;s20;d5s18;p6s18;s22;s2s17;p7s23s25;P21s24;s20;P18;d25;n8s29s31;s22;s22;s1d9;s3d10;s31;s7d11;s36;s35;s8d12;d39;s39;n13s41;s38;n15s44;s42;d43;d47s48;s46;d14s15;d50;s50;s51;s52;d53;d55s56;d54;s54;s58;d59;d60s61;/rC:14.3406,-6.7876,0;16.4534,-5.5566,0;12.5438,-7.8524,0;10.1316,-6.8708,0;11.6954,-1.2644,0;14.3572,-1.9298,0;8.0354,-1.9964,0;6.6213,-6.3717,0;15.4718,-8.784,0;10.4144,-7.8191,0;6.9873,-.1664,0;5.5233,-4.4752,0;4.4253,-7.6527,0;1.098,-4.4752,0;3.3106,-4.4752,0;13.2925,-4.8578,0;14.3572,-5.4734,0;13.2925,-3.6267,0;12.5272,-5.6896,0;10.1482,-5.673,0;15.4053,-4.8578,0;10.1482,-4.4419,0;11.6787,-2.6119,0;14.3572,-3.0278,0;9.1001,-3.843,0;15.4552,-6.1721,0;9.1001,-2.6119,0;15.4053,-3.6267,0;9.1001,-6.2886,0;13.3757,-1.6803,0;8.0354,-4.4419,0;8.0354,-5.673,0;10.98,-3.5103,0;11.1131,-4.9244,0;15.4885,-7.4697,0;11.5457,-8.4513,0;6.9706,-3.843,0;8.0354,-.7653,0;11.529,-9.6824,0;16.6364,-6.8209,0;5.5233,-5.7396,0;10.2979,-10.3312,0;12.6437,-10.3478,0;4.4253,-6.3717,0;9.1001,-.1664,0;3.3106,-5.7396,0;10.2813,-11.6455,0;12.627,-11.6621,0;11.4791,-12.3109,0;2.2126,-6.3717,0;2.2126,-3.8264,0;1.098,-5.7396,0;2.2126,-7.6527,0;2.2126,-2.562,0;0,-6.3717,0;1.098,-8.3016,0;0,-7.6527,0;3.3106,-1.9132,0;1.098,-1.9132,0;3.3106,-.6488,0;1.098,-.6488,0;2.2126,0,0;

> <Formula>
C47 H51 N O14

> <Mw>
853.9061

> <SMILES>
O(C(C)=O)[C@@]12CO[C@@H]1C[C@@H]([C@@]1(C)C([C@@H](C3=C(C)[C@H](C[C@](C3(C)C)([C@H]([C@H]21)OC(C1C=CC=CC=1)=O)O)OC([C@@H]([C@H](C1C=CC=CC=1)NC(C1C=CC=CC=1)=O)O)=O)OC(C)=O)=O)O

> <CSID>
10368587

$$$$
