phorbine_template
     RDKit          2D

 27 35  0  0  0  0  0  0  0  0999 V2000
   -1.1522    1.6965    0.0072 N   0  0  0  0  0  0  0  0  0  0  0  0
   -2.4361    1.3891    0.0243 C   0  0  0  0  0  0  0  0  0  0  0  0
   -3.2551    2.6592    0.0280 C   0  0  0  0  0  0  0  0  0  0  0  0
   -2.1821    3.7665   -0.0226 C   0  0  0  0  0  0  0  0  0  0  0  0
   -0.8804    2.9841   -0.0147 C   0  0  0  0  0  0  0  0  0  0  0  0
    0.3699    3.5562   -0.0277 C   0  0  0  0  0  0  0  0  0  0  0  0
    1.5629    2.8383   -0.0181 C   0  0  0  0  0  0  0  0  0  0  0  0
    1.7410    1.4762   -0.0021 N   0  0  0  0  0  0  0  0  0  0  0  0
    3.0969    1.2162    0.0078 C   0  0  0  0  0  0  0  0  0  0  0  0
    3.7475    0.0014    0.0237 C   0  0  0  0  0  0  0  0  0  0  0  0
    3.1412   -1.2565    0.0200 C   0  0  0  0  0  0  0  0  0  0  0  0
    1.8378   -1.5394   -0.0038 N   0  0  0  0  0  0  0  0  0  0  0  0
    1.6673   -2.8650   -0.0107 C   0  0  0  0  0  0  0  0  0  0  0  0
    0.4321   -3.5424   -0.0390 C   0  0  0  0  0  0  0  0  0  0  0  0
   -0.7408   -2.7986   -0.0289 C   0  0  0  0  0  0  0  0  0  0  0  0
   -0.8019   -1.4168    0.0035 N   0  0  0  0  0  0  0  0  0  0  0  0
   -2.1350   -1.0508    0.0111 C   0  0  0  0  0  0  0  0  0  0  0  0
   -2.9023   -2.2159   -0.0191 C   0  0  0  0  0  0  0  0  0  0  0  0
   -4.3670   -1.8413   -0.0108 C   0  0  0  0  0  0  0  0  0  0  0  0
   -4.3853   -0.3037    0.0520 C   0  0  0  0  0  0  0  0  0  0  0  0
   -2.9345    0.1011    0.0313 C   0  0  0  0  0  0  0  0  0  0  0  0
   -2.0537   -3.2871   -0.0459 C   0  0  0  0  0  0  0  0  0  0  0  0
    2.9423   -3.4820    0.0196 C   0  0  0  0  0  0  0  0  0  0  0  0
    3.8606   -2.4871    0.0406 C   0  0  0  0  0  0  0  0  0  0  0  0
    3.7696    2.4578   -0.0055 C   0  0  0  0  0  0  0  0  0  0  0  0
    2.8347    3.4416   -0.0220 C   0  0  0  0  0  0  0  0  0  0  0  0
    0.4062    0.0541    0.0000 Fe  0  0  0  0  0  4  0  0  0  0  0  0
  1  2  1  0
  2  3  1  0
  3  4  1  0
  4  5  1  0
  1  5  1  0
  5  6  2  0
  6  7  1  0
  7  8  1  0
  8  9  1  0
  9 10  1  0
 10 11  2  0
 11 12  1  0
 12 13  1  0
 13 14  2  0
 14 15  1  0
 15 16  1  0
 16 17  1  0
 17 18  2  0
 18 19  1  0
 19 20  1  0
 20 21  1  0
 17 21  1  0
  2 21  2  0
 18 22  1  0
 15 22  2  0
 13 23  1  0
 23 24  2  0
 11 24  1  0
  9 25  2  0
 25 26  1  0
  7 26  2  0
  1 27  1  0
  8 27  1  0
 12 27  1  0
 16 27  1  0
M  END
