127650
     RDKit          2D

 25 32  0  0  0  0  0  0  0  0999 V2000
    5.4279   -1.6322    0.0000 N   0  0  0  0  0  0  0  0  0  0  0  0
    5.4279    1.6323    0.0000 N   0  0  0  0  0  0  0  0  0  0  0  0
    7.7530   -1.6322    0.0000 N   0  0  0  0  0  0  0  0  0  0  0  0
    7.7530    1.6323    0.0000 N   0  0  0  0  0  0  0  0  0  0  0  0
    4.2139    0.7503    0.0000 C   0  0  0  0  0  0  0  0  0  0  0  0
    4.2139   -0.7503    0.0000 C   0  0  0  0  0  0  0  0  0  0  0  0
    4.9641    3.0592    0.0000 C   0  0  0  0  0  0  0  0  0  0  0  0
    4.9641   -3.0592    0.0000 C   0  0  0  0  0  0  0  0  0  0  0  0
    3.0000    1.6323    0.0000 C   0  0  0  0  0  0  0  0  0  0  0  0
    3.0000   -1.6322    0.0000 C   0  0  0  0  0  0  0  0  0  0  0  0
    3.4636   -3.0592    0.0000 C   0  0  0  0  0  0  0  0  0  0  0  0
    3.4636    3.0592    0.0000 C   0  0  0  0  0  0  0  0  0  0  0  0
    5.8461   -4.2732    0.0000 C   0  0  0  0  0  0  0  0  0  0  0  0
    5.8461    4.2732    0.0000 C   0  0  0  0  0  0  0  0  0  0  0  0
    8.9670   -0.7503    0.0000 C   0  0  0  0  0  0  0  0  0  0  0  0
    8.9670    0.7503    0.0000 C   0  0  0  0  0  0  0  0  0  0  0  0
    8.2167    3.0592    0.0000 C   0  0  0  0  0  0  0  0  0  0  0  0
    8.2167   -3.0592    0.0000 C   0  0  0  0  0  0  0  0  0  0  0  0
    7.3467   -4.2732    0.0000 C   0  0  0  0  0  0  0  0  0  0  0  0
    7.3467    4.2732    0.0000 C   0  0  0  0  0  0  0  0  0  0  0  0
   10.1809   -1.6322    0.0000 C   0  0  0  0  0  0  0  0  0  0  0  0
   10.1809    1.6323    0.0000 C   0  0  0  0  0  0  0  0  0  0  0  0
    9.7173   -3.0592    0.0000 C   0  0  0  0  0  0  0  0  0  0  0  0
    9.7173    3.0592    0.0000 C   0  0  0  0  0  0  0  0  0  0  0  0
    6.5904    0.0000    0.0000 Fe  0  0  0  0  0  4  0  0  0  0  0  0
  1  6  1  0
  1  8  1  0
  1 25  1  0
  2  5  1  0
  2  7  1  0
  2 25  1  0
  3 15  1  0
  3 18  2  0
  3 25  1  0
  4 16  1  0
  4 17  2  0
  4 25  1  0
  5  6  1  0
  5  9  2  0
  6 10  2  0
  7 12  2  0
  7 14  1  0
  8 11  2  0
  8 13  1  0
  9 12  1  0
 10 11  1  0
 13 19  2  0
 14 20  2  0
 15 16  2  0
 15 21  1  0
 16 22  1  0
 17 20  1  0
 17 24  1  0
 18 19  1  0
 18 23  1  0
 21 23  2  0
 22 24  2  0
M  CHG  3   3   1   4   1  25  -2
M  END
