C32H56N6Ru
  PyMOL2.0          2D                             0

 37 45  0  0  0  0  0  0  0  0999 V2000
   12.6172   -2.8858    0.0000 C   0  0  0  0  0  0  0  0  0  0  0  0
   13.3667   -1.5877    0.0000 C   0  0  0  0  0  0  0  0  0  0  0  0
   14.8657   -1.5877    0.0000 C   0  0  0  0  0  0  0  0  0  0  0  0
   15.6152   -0.2894    0.0000 C   0  0  0  0  0  0  0  0  0  0  0  0
   14.8657    1.0087    0.0000 C   0  0  0  0  0  0  0  0  0  0  0  0
   13.3667    1.0087    0.0000 C   0  0  0  0  0  0  0  0  0  0  0  0
   12.6172   -0.2894    0.0000 N   0  0  0  0  0  0  0  0  0  0  0  0
    9.4457   -0.5129    0.0000 Ru  0  0  0  0  0  0  0  0  0  0  0  0
    6.3380   -0.2562    0.0000 N   0  0  0  0  0  0  0  0  0  0  0  0
    5.5885    1.0421    0.0000 C   0  0  0  0  0  0  0  0  0  0  0  0
    4.0895    1.0421    0.0000 C   0  0  0  0  0  0  0  0  0  0  0  0
    3.3400   -0.2562    0.0000 C   0  0  0  0  0  0  0  0  0  0  0  0
    4.0895   -1.5543    0.0000 C   0  0  0  0  0  0  0  0  0  0  0  0
    5.5885   -1.5543    0.0000 C   0  0  0  0  0  0  0  0  0  0  0  0
    6.3380   -2.8525    0.0000 C   0  0  0  0  0  0  0  0  0  0  0  0
    5.5885   -4.1506    0.0000 C   0  0  0  0  0  0  0  0  0  0  0  0
    6.3380   -5.4489    0.0000 C   0  0  0  0  0  0  0  0  0  0  0  0
    7.8370   -5.4489    0.0000 C   0  0  0  0  0  0  0  0  0  0  0  0
    8.5865   -4.1506    0.0000 C   0  0  0  0  0  0  0  0  0  0  0  0
    7.8370   -2.8525    0.0000 N   0  0  0  0  0  0  0  0  0  0  0  0
    8.0133    1.5877    0.0000 N   0  0  0  0  0  0  0  0  0  0  0  0
    6.5143    1.5877    0.0000 C   0  0  0  0  0  0  0  0  0  0  0  0
    5.7648    2.8858    0.0000 C   0  0  0  0  0  0  0  0  0  0  0  0
    6.5143    4.1840    0.0000 C   0  0  0  0  0  0  0  0  0  0  0  0
    8.0133    4.1840    0.0000 C   0  0  0  0  0  0  0  0  0  0  0  0
   11.0113    4.1840    0.0000 C   0  0  0  0  0  0  0  0  0  0  0  0
   12.5103    4.1840    0.0000 C   0  0  0  0  0  0  0  0  0  0  0  0
   13.2598    2.8858    0.0000 C   0  0  0  0  0  0  0  0  0  0  0  0
   12.5103    1.5877    0.0000 C   0  0  0  0  0  0  0  0  0  0  0  0
   11.0113    1.5877    0.0000 N   0  0  0  0  0  0  0  0  0  0  0  0
   10.2618    2.8858    0.0000 C   0  0  0  0  0  0  0  0  0  0  0  0
    8.7628    2.8858    0.0000 C   0  0  0  0  0  0  0  0  0  0  0  0
   11.1182   -2.8858    0.0000 N   0  0  0  0  0  0  0  0  0  0  0  0
   10.3685   -4.1840    0.0000 C   0  0  0  0  0  0  0  0  0  0  0  0
   11.1180   -5.4821    0.0000 C   0  0  0  0  0  0  0  0  0  0  0  0
   12.6172   -5.4821    0.0000 C   0  0  0  0  0  0  0  0  0  0  0  0
   13.3667   -4.1840    0.0000 C   0  0  0  0  0  0  0  0  0  0  0  0
  1  2  1  0  0  0  0
  1 33  1  0  0  0  0
  1 37  1  0  0  0  0
  2  3  1  0  0  0  0
  2  7  1  0  0  0  0
  3  4  1  0  0  0  0
  4  5  1  0  0  0  0
  5  6  1  0  0  0  0
  6  7  1  0  0  0  0
  7  8  1  0  0  0  0
  8  9  1  0  0  0  0
  8 20  1  0  0  0  0
  8 21  1  1  0  0  0
  8 30  1  0  0  0  0
  8 33  1  6  0  0  0
  9 10  1  0  0  0  0
  9 14  1  0  0  0  0
 10 11  1  0  0  0  0
 11 12  1  0  0  0  0
 12 13  1  0  0  0  0
 13 14  1  0  0  0  0
 14 15  1  0  0  0  0
 15 16  1  0  0  0  0
 15 20  1  0  0  0  0
 16 17  1  0  0  0  0
 17 18  1  0  0  0  0
 18 19  1  0  0  0  0
 19 20  1  0  0  0  0
 21 22  1  0  0  0  0
 21 32  1  0  0  0  0
 22 23  1  0  0  0  0
 23 24  1  0  0  0  0
 24 25  1  0  0  0  0
 25 32  1  0  0  0  0
 26 27  1  0  0  0  0
 26 31  1  0  0  0  0
 27 28  1  0  0  0  0
 28 29  1  0  0  0  0
 29 30  1  0  0  0  0
 30 31  1  0  0  0  0
 31 32  1  0  0  0  0
 33 34  1  0  0  0  0
 34 35  1  0  0  0  0
 35 36  1  0  0  0  0
 36 37  1  0  0  0  0
M  END
$$$$
