9238
  PyMOL2.0          2D                             0

 10 12  0  0  0  0  0  0  0  0999 V2000
    5.5095    1.7701    0.0000 C   0  0  0  0  0  0  0  0  0  0  0  0
    6.7638   -0.4023    0.0000 C   0  0  0  0  0  0  0  0  0  0  0  0
    4.2552   -0.4023    0.0000 C   0  0  0  0  0  0  0  0  0  0  0  0
    4.4728   -1.0549    0.0000 C   0  0  0  0  0  0  0  0  0  0  0  0
    5.5095   -0.8565    0.0000 C   0  0  0  0  0  0  0  0  0  0  0  0
    6.7638    1.0460    0.0000 C   0  0  0  0  0  0  0  0  0  0  0  0
    3.0000   -1.1265    0.0000 C   0  0  0  0  0  0  0  0  0  0  0  0
    4.2552    1.0460    0.0000 C   0  0  0  0  0  0  0  0  0  0  0  0
    4.4728    0.5130    0.0000 C   0  0  0  0  0  0  0  0  0  0  0  0
    5.8314   -1.7701    0.0000 C   0  0  0  0  0  0  0  0  0  0  0  0
  1  6  1  0  0  0  0
  1  8  1  0  0  0  0
  1  9  1  0  0  0  0
  2  5  1  0  0  0  0
  2  6  1  0  0  0  0
  2 10  1  0  0  0  0
  3  5  1  0  0  0  0
  3  7  1  0  0  0  0
  3  8  1  0  0  0  0
  4  7  1  0  0  0  0
  4  9  1  0  0  0  0
  4 10  1  0  0  0  0
M  END
$$$$
