
     RDKit          2D

  8 12  0  0  0  0  0  0  0  0999 V2000
    0.0000    0.0000    0.0000 Fe  0  0  0  0  0  3  0  0  0  0  0  0
    1.5000    0.0000    0.0000 S   0  0  0  0  0  0  0  0  0  0  0  0
    1.8940    0.6382    0.0000 Fe  0  0  0  0  0  3  0  0  0  0  0  0
    0.3940    0.6382    0.0000 S   0  0  0  0  0  0  0  0  0  0  0  0
    1.5000    1.5000    0.0000 Fe  0  0  0  0  0  3  0  0  0  0  0  0
    1.8940    2.1382    0.0000 S   0  0  0  0  0  0  0  0  0  0  0  0
    0.3940    2.1382    0.0000 Fe  0  0  0  0  0  3  0  0  0  0  0  0
    0.0000    1.5000    0.0000 S   0  0  0  0  0  0  0  0  0  0  0  0
  1  2  1  0
  2  3  1  0
  3  4  1  0
  4  1  1  0
  1  8  1  0
  2  5  1  0
  3  6  1  0
  4  7  1  0
  8  5  1  0
  5  6  1  0
  6  7  1  0
  7  8  1  0
M  END
