
  PyMOL2.0          2D                             0

 23 27  0  0  0  0  0  0  0  0999 V2000
    7.5078    2.0290    0.0000 N   0  0  0  0  0  0  0  0  0  0  0  0
    5.3028   -0.0250    0.0000 N   0  0  0  0  0  0  0  0  0  0  0  0
    9.8106   -0.0250    0.0000 N   0  0  0  0  0  0  0  0  0  0  0  0
    7.5581   -2.0793    0.0000 N   0  0  0  0  0  0  0  0  0  0  0  0
    6.3048    2.9810    0.0000 C   0  0  0  0  0  0  0  0  0  0  0  0
    4.4516    1.1276    0.0000 C   0  0  0  0  0  0  0  0  0  0  0  0
    8.7609    3.0312    0.0000 C   0  0  0  0  0  0  0  0  0  0  0  0
    4.4516   -1.1778    0.0000 C   0  0  0  0  0  0  0  0  0  0  0  0
    4.8534    2.5791    0.0000 C   0  0  0  0  0  0  0  0  0  0  0  0
    6.7569    4.4325    0.0000 C   0  0  0  0  0  0  0  0  0  0  0  0
    3.0000    0.7257    0.0000 C   0  0  0  0  0  0  0  0  0  0  0  0
    8.2587    4.4325    0.0000 C   0  0  0  0  0  0  0  0  0  0  0  0
    3.0000   -0.7760    0.0000 C   0  0  0  0  0  0  0  0  0  0  0  0
   10.2125    2.5791    0.0000 C   0  0  0  0  0  0  0  0  0  0  0  0
   10.6620    1.1778    0.0000 C   0  0  0  0  0  0  0  0  0  0  0  0
    6.3551   -3.0312    0.0000 C   0  0  0  0  0  0  0  0  0  0  0  0
   10.7122   -1.1276    0.0000 C   0  0  0  0  0  0  0  0  0  0  0  0
    8.7609   -2.9810    0.0000 C   0  0  0  0  0  0  0  0  0  0  0  0
   10.2627   -2.5791    0.0000 C   0  0  0  0  0  0  0  0  0  0  0  0
   12.1159    0.7760    0.0000 C   0  0  0  0  0  0  0  0  0  0  0  0
    6.8071   -4.4325    0.0000 C   0  0  0  0  0  0  0  0  0  0  0  0
   12.1159   -0.7257    0.0000 C   0  0  0  0  0  0  0  0  0  0  0  0
    8.3090   -4.4325    0.0000 C   0  0  0  0  0  0  0  0  0  0  0  0
  1  5  1  0  0  0  0
  1  7  1  0  0  0  0
  2  6  1  0  0  0  0
  2  8  1  0  0  0  0
  3 15  2  0  0  0  0
  3 17  1  0  0  0  0
  4 16  1  0  0  0  0
  4 18  2  0  0  0  0
  5  9  2  0  0  0  0
  5 10  1  0  0  0  0
  6  9  1  0  0  0  0
  6 11  2  0  0  0  0
  7 12  1  0  0  0  0
  7 14  2  0  0  0  0
  8 13  2  0  0  0  0
  8 16  1  0  0  0  0
 10 12  2  0  0  0  0
 11 13  1  0  0  0  0
 14 15  1  0  0  0  0
 15 20  1  0  0  0  0
 16 21  1  0  0  0  0
 17 19  2  0  0  0  0
 17 22  1  0  0  0  0
 18 19  1  0  0  0  0
 18 23  1  0  0  0  0
 20 22  2  0  0  0  0
 21 23  2  0  0  0  0
M  END
$$$$
