porphin_plus_fe_4_bonds_charged_n
     RDKit          2D

 25 32  0  0  0  0  0  0  0  0999 V2000
   -2.9990    1.2907    0.0000 C   0  0  0  0  0  0  0  0  0  0  0  0
   -3.6824    2.6573    0.0000 C   0  0  0  0  0  0  0  0  0  0  0  0
   -2.6194    3.7204    0.0000 C   0  0  0  0  0  0  0  0  0  0  0  0
   -1.2907    3.0370    0.0000 C   0  0  0  0  0  0  0  0  0  0  0  0
    0.0000    3.7963    0.0000 C   0  0  0  0  0  0  0  0  0  0  0  0
    1.3288    3.0370    0.0000 C   0  0  0  0  0  0  0  0  0  0  0  0
    2.6576    3.7204    0.0000 C   0  0  0  0  0  0  0  0  0  0  0  0
    3.7584    2.6573    0.0000 C   0  0  0  0  0  0  0  0  0  0  0  0
    3.0370    1.2907    0.0000 C   0  0  0  0  0  0  0  0  0  0  0  0
    3.7965    0.0000    0.0000 C   0  0  0  0  0  0  0  0  0  0  0  0
    3.0370   -1.2907    0.0000 C   0  0  0  0  0  0  0  0  0  0  0  0
    3.7584   -2.6573    0.0000 C   0  0  0  0  0  0  0  0  0  0  0  0
    2.6576   -3.7204    0.0000 C   0  0  0  0  0  0  0  0  0  0  0  0
    1.3288   -3.0372    0.0000 C   0  0  0  0  0  0  0  0  0  0  0  0
    0.0000   -3.7965    0.0000 C   0  0  0  0  0  0  0  0  0  0  0  0
   -1.2907   -3.0372    0.0000 C   0  0  0  0  0  0  0  0  0  0  0  0
   -2.6194   -3.7204    0.0000 C   0  0  0  0  0  0  0  0  0  0  0  0
   -3.6824   -2.6573    0.0000 C   0  0  0  0  0  0  0  0  0  0  0  0
   -2.9990   -1.2907    0.0000 C   0  0  0  0  0  0  0  0  0  0  0  0
   -3.7583    0.0000    0.0000 C   0  0  0  0  0  0  0  0  0  0  0  0
   -1.5185    1.5565    0.0000 N   0  0  0  0  0  0  0  0  0  0  0  0
    1.5565    1.5565    0.0000 N   0  0  0  0  0  0  0  0  0  0  0  0
    1.5565   -1.5565    0.0000 N   0  0  0  0  0  0  0  0  0  0  0  0
   -1.5185   -1.5565    0.0000 N   0  0  0  0  0  0  0  0  0  0  0  0
    0.0000    0.0000    0.0000 Fe  0  0  0  0  0  4  0  0  0  0  0  0
 14 15  2  0
 16 15  1  0
 13 14  1  0
 23 14  1  0
 24 16  2  0
 17 16  1  0
 11 23  1  0
 12 13  2  0
 11 12  1  0
 10 11  2  0
  9 10  1  0
 22  9  2  0
  8  9  1  0
  6 22  1  0
  7  8  2  0
  7  6  1  0
  5  6  2  0
  4  5  1  0
 21  4  1  0
  3  4  2  0
  1 21  1  0
  2  1  2  0
 20  1  1  0
  3  2  1  0
 19 20  2  0
 24 19  1  0
 18 19  1  0
 18 17  2  0
 21 25  1  0
 22 25  1  0
 23 25  1  0
 24 25  1  0
M  CHG  3  22   1  24   1  25  -2
M  END
$$$$
