9233
  PyMOL2.0          2D                             0

  7  8  0  0  0  0  0  0  0  0999 V2000
    5.5721   -1.0175    0.0000 C   0  0  0  0  0  0  0  0  0  0  0  0
    5.9602    0.4315    0.0000 C   0  0  0  0  0  0  0  0  0  0  0  0
    4.8554    1.9055    0.0000 C   0  0  0  0  0  0  0  0  0  0  0  0
    3.5130   -1.9055    0.0000 C   0  0  0  0  0  0  0  0  0  0  0  0
    3.0000   -0.4959    0.0000 C   0  0  0  0  0  0  0  0  0  0  0  0
    7.6705   -1.7807    0.0000 C   0  0  0  0  0  0  0  0  0  0  0  0
    8.0588   -0.3318    0.0000 C   0  0  0  0  0  0  0  0  0  0  0  0
  1  3  1  0  0  0  0
  1  4  1  0  0  0  0
  1  6  1  0  0  0  0
  2  3  1  0  0  0  0
  2  5  1  0  0  0  0
  2  7  1  0  0  0  0
  4  5  1  0  0  0  0
  6  7  1  0  0  0  0
M  END
$$$$
